* File: ALU.pex.netlist
* Created: Mon Dec  4 03:11:54 2017
* Program "Calibre xRC"
* Version "v2010.4_26.16"
* 
.subckt ALU CTRL<1> CTRL<2> ALU_OUT<15> CTRL<0> OP1<13> OP1<15>
+ OP1<14> OP1<11> OP1<10> OP1<9> OP1<8> OP1<7> OP1<6> OP1<5> OP1<4> OP1<3> OP1<2>
+ OP1<1> OP1<0> OP1<12> C_FLAG ALU_OUT<14> ALU_OUT<12> ALU_OUT<13> ALU_OUT<10>
+ ALU_OUT<11> ALU_OUT<8> ALU_OUT<9> ALU_OUT<6> ALU_OUT<7> ALU_OUT<4> ALU_OUT<5>
+ ALU_OUT<2> ALU_OUT<3> ALU_OUT<0> ALU_OUT<1> V_FLAG N_FLAG OP0<15> OP0<14>
+ OP0<13> OP0<12> OP0<11> OP0<10> OP0<9> OP0<8> OP0<7> OP0<6> OP0<5> OP0<4>
+ OP0<3> OP0<2> OP0<1> OP0<0>
* 
mXI23_MM_u4-M_u2 NET054 XI23_NET20 VSS! VSS! nch L=6e-08 W=1.95e-07
+ AD=3.6075e-14 AS=5.1e-14 PD=7.6e-07 PS=8e-07 NRD=0.948718 NRS=1.34122
+ SA=1.85e-07 SB=1.04668e-06 SCA=15.2552 SCB=0.0180065 SCC=0.00155113
mXI23_MMI1-M_u2 XI23_NET33 CTRL<1> VSS! VSS! nch L=6e-08 W=1.95e-07 AD=1.95e-14
+ AS=5.1e-14 PD=3.95e-07 PS=8e-07 NRD=0.512821 NRS=1.34122 SA=4.95e-07
+ SB=6.85702e-07 SCA=15.3124 SCB=0.0180065 SCC=0.00155113
mXI23_MM_u6-M_u3 XI23_NET33 XI23_NET9 XI23_NET20 VSS! nch L=6e-08 W=1.95e-07
+ AD=1.95e-14 AS=2.88875e-14 PD=3.95e-07 PS=5.2e-07 NRD=0.512821 NRS=0.759698
+ SA=7.55e-07 SB=3.41107e-07 SCA=15.2932 SCB=0.0180066 SCC=0.00155113
mXI23_MMI5-M_u3 XI23_NET5 CTRL<2> XI23_NET20 VSS! nch L=6e-08 W=1.95e-07
+ AD=3.03643e-14 AS=2.88875e-14 PD=5.72338e-07 PS=5.2e-07 NRD=0.798535
+ NRS=0.759698 SA=3.92938e-07 SB=2.23659e-07 SCA=8.97869 SCB=0.0107049
+ SCC=0.000424037
mXI23_MM_u5-M_u2 XI23_NET5 XI23_NET33 VSS! VSS! nch L=6e-08 W=1.9e-07
+ AD=2.95857e-14 AS=2.0061e-14 PD=5.57662e-07 PS=4.14545e-07 NRD=0.819549
+ NRS=0.555707 SA=3.8003e-07 SB=3.57793e-07 SCA=18.6674 SCB=0.0204858
+ SCC=0.00215666
mXI23_MMI4-M_u2 XI23_NET9 CTRL<2> VSS! VSS! nch L=6e-08 W=1.95e-07 AD=3.51e-14
+ AS=2.0589e-14 PD=7.5e-07 PS=4.25455e-07 NRD=0.923077 NRS=0.541459
+ SA=4.72409e-07 SB=1.8e-07 SCA=15.5134 SCB=0.017577 SCC=0.00143458
mXI2_MM_u2-M_u3 XI2_NET5 CTRL<0> XI2_NET17 VSS! nch L=6e-08 W=1.95e-07
+ AD=3.9e-14 AS=1.56e-14 PD=7.9e-07 PS=3.55e-07 NRD=1.02564 NRS=0.410256 SA=2e-07
+ SB=7.6e-07 SCA=5.92063 SCB=0.0053473 SCC=8.31145e-05
mXI2_MM_u2-M_u4 XI2_NET17 NET054 VSS! VSS! nch L=6e-08 W=1.95e-07 AD=1.56e-14
+ AS=4.15e-14 PD=3.55e-07 PS=5.8e-07 NRD=0.410256 NRS=1.09139 SA=4.2e-07
+ SB=5.4e-07 SCA=5.9317 SCB=0.0053473 SCC=8.31145e-05
mXI2_MM_u3-M_u2 NET198 XI2_NET5 VSS! VSS! nch L=6e-08 W=3.9e-07 AD=7.02e-14
+ AS=8.3e-14 PD=1.14e-06 PS=1.16e-06 NRD=0.461538 NRS=0.545694 SA=3.28269e-07
+ SB=1.8e-07 SCA=12.1098 SCB=0.0127828 SCC=0.00109616
mXI1_XI29_MM_u8-M_u2 XI1_XI29_NET13 NET129 VSS! VSS! nch L=6e-08 W=1.95e-07
+ AD=3.51e-14 AS=2.0589e-14 PD=7.5e-07 PS=4.25455e-07 NRD=0.923077 NRS=0.541459
+ SA=1.8e-07 SB=4.79383e-07 SCA=14.7432 SCB=0.0174746 SCC=0.00143457
mXI1_XI29_MM_u5-M_u2 XI1_XI29_NET33 XI1_XI29_NET5 VSS! VSS! nch L=6e-08
+ W=1.9e-07 AD=2.8462e-14 AS=2.0061e-14 PD=5.168e-07 PS=4.14545e-07 NRD=0.788421
+ NRS=0.555707 SA=3.57793e-07 SB=3.86598e-07 SCA=18.2557 SCB=0.020476
+ SCC=0.00215666
mXI1_XI29_MMI1-M_u3 XI1_XI29_NET33 NET129 XI1_XI29_NET20 VSS! nch L=6e-08
+ W=3.1e-07 AD=4.6438e-14 AS=4.20222e-14 PD=8.432e-07 PS=6.24921e-07 NRD=0.483226
+ NRS=0.437276 SA=1.78403e-07 SB=5.64361e-07 SCA=7.05644 SCB=0.00790216
+ SCC=0.000274709
mXI1_XI29_MM_u6-M_u3 XI1_XI29_NET5 XI1_XI29_NET13 XI1_XI29_NET20 VSS! nch
+ L=6e-08 W=3.2e-07 AD=3.3262e-14 AS=4.33778e-14 PD=5.31831e-07 PS=6.45079e-07
+ NRD=0.324824 NRS=0.423611 SA=3.72884e-07 SB=9.4e-07 SCA=11.3642 SCB=0.0132003
+ SCC=0.000978045
mXI1_XI29_MM_u2-M_u2 XI1_XI29_NET5 OP1<15> VSS! VSS! nch L=6e-08 W=3.9e-07
+ AD=4.0538e-14 AS=3.9e-14 PD=6.48169e-07 PS=5.9e-07 NRD=0.266522 NRS=0.25641
+ SA=4.25268e-07 SB=6.8e-07 SCA=9.96823 SCB=0.0112928 SCC=0.00080481
mXI1_XI29_MMI2-M_u2 noxref_40 XI1_XI29_NET20 VSS! VSS! nch L=6e-08 W=3.9e-07
+ AD=3.9e-14 AS=3.9e-14 PD=5.9e-07 PS=5.9e-07 NRD=0.25641 NRS=0.25641
+ SA=7.81141e-07 SB=4.2e-07 SCA=9.9443 SCB=0.0112928 SCC=0.00080481
mXI1_XI29_MM_u4-M_u2 noxref_40 XI1_XI29_NET20 VSS! VSS! nch L=6e-08 W=3.9e-07
+ AD=3.9e-14 AS=6.24e-14 PD=5.9e-07 PS=1.1e-06 NRD=0.25641 NRS=0.410256
+ SA=1.08144e-06 SB=1.6e-07 SCA=10.4948 SCB=0.0112978 SCC=0.00080481
mXI1_XI20_MM_u8-M_u2 XI1_XI20_NET13 NET126 VSS! VSS! nch L=6e-08 W=1.95e-07
+ AD=3.51e-14 AS=2.0589e-14 PD=7.5e-07 PS=4.25455e-07 NRD=0.923077 NRS=0.541459
+ SA=1.8e-07 SB=4.79383e-07 SCA=14.8258 SCB=0.0174757 SCC=0.00143457
mXI1_XI20_MM_u5-M_u2 XI1_XI20_NET33 XI1_XI20_NET5 VSS! VSS! nch L=6e-08
+ W=1.9e-07 AD=2.8462e-14 AS=2.0061e-14 PD=5.168e-07 PS=4.14545e-07 NRD=0.788421
+ NRS=0.555707 SA=3.57793e-07 SB=3.86598e-07 SCA=18.4379 SCB=0.0204771
+ SCC=0.00215666
mXI1_XI20_MMI1-M_u3 XI1_XI20_NET33 NET126 XI1_XI20_NET20 VSS! nch L=6e-08
+ W=3.1e-07 AD=4.6438e-14 AS=4.20222e-14 PD=8.432e-07 PS=6.24921e-07 NRD=0.483226
+ NRS=0.437276 SA=1.78403e-07 SB=5.64361e-07 SCA=7.47144 SCB=0.00790826
+ SCC=0.000274709
mXI1_XI20_MM_u6-M_u3 XI1_XI20_NET5 XI1_XI20_NET13 XI1_XI20_NET20 VSS! nch
+ L=6e-08 W=3.2e-07 AD=3.3262e-14 AS=4.33778e-14 PD=5.31831e-07 PS=6.45079e-07
+ NRD=0.324824 NRS=0.423611 SA=3.72884e-07 SB=9.4e-07 SCA=11.7638 SCB=0.0132034
+ SCC=0.000978045
mXI1_XI20_MM_u2-M_u2 XI1_XI20_NET5 OP1<14> VSS! VSS! nch L=6e-08 W=3.9e-07
+ AD=4.0538e-14 AS=3.9e-14 PD=6.48169e-07 PS=5.9e-07 NRD=0.266522 NRS=0.25641
+ SA=4.25268e-07 SB=6.8e-07 SCA=10.4358 SCB=0.0112978 SCC=0.00080481
mXI1_XI20_MMI2-M_u2 NET67 XI1_XI20_NET20 VSS! VSS! nch L=6e-08 W=3.9e-07
+ AD=3.9e-14 AS=3.9e-14 PD=5.9e-07 PS=5.9e-07 NRD=0.25641 NRS=0.25641
+ SA=7.81141e-07 SB=4.2e-07 SCA=10.4358 SCB=0.0112978 SCC=0.00080481
mXI1_XI20_MM_u4-M_u2 NET67 XI1_XI20_NET20 VSS! VSS! nch L=6e-08 W=3.9e-07
+ AD=3.9e-14 AS=6.24e-14 PD=5.9e-07 PS=1.1e-06 NRD=0.25641 NRS=0.410256
+ SA=1.08144e-06 SB=1.6e-07 SCA=10.4358 SCB=0.0112978 SCC=0.00080481
mXI1_XI32_MM_u8-M_u2 XI1_XI32_NET13 NET123 VSS! VSS! nch L=6e-08 W=1.95e-07
+ AD=3.51e-14 AS=2.0589e-14 PD=7.5e-07 PS=4.25455e-07 NRD=0.923077 NRS=0.541459
+ SA=1.8e-07 SB=4.79383e-07 SCA=14.8258 SCB=0.0174757 SCC=0.00143457
mXI1_XI32_MM_u5-M_u2 XI1_XI32_NET33 XI1_XI32_NET5 VSS! VSS! nch L=6e-08
+ W=1.9e-07 AD=2.8462e-14 AS=2.0061e-14 PD=5.168e-07 PS=4.14545e-07 NRD=0.788421
+ NRS=0.555707 SA=3.57793e-07 SB=3.86598e-07 SCA=18.4379 SCB=0.0204771
+ SCC=0.00215666
mXI1_XI32_MMI1-M_u3 XI1_XI32_NET33 NET123 XI1_XI32_NET20 VSS! nch L=6e-08
+ W=3.1e-07 AD=4.6438e-14 AS=4.20222e-14 PD=8.432e-07 PS=6.24921e-07 NRD=0.483226
+ NRS=0.437276 SA=1.78403e-07 SB=5.64361e-07 SCA=7.47144 SCB=0.00790826
+ SCC=0.000274709
mXI1_XI32_MM_u6-M_u3 XI1_XI32_NET5 XI1_XI32_NET13 XI1_XI32_NET20 VSS! nch
+ L=6e-08 W=3.2e-07 AD=3.3262e-14 AS=4.33778e-14 PD=5.31831e-07 PS=6.45079e-07
+ NRD=0.324824 NRS=0.423611 SA=3.72884e-07 SB=9.4e-07 SCA=11.7638 SCB=0.0132034
+ SCC=0.000978045
mXI1_XI32_MM_u2-M_u2 XI1_XI32_NET5 OP1<13> VSS! VSS! nch L=6e-08 W=3.9e-07
+ AD=4.0538e-14 AS=3.9e-14 PD=6.48169e-07 PS=5.9e-07 NRD=0.266522 NRS=0.25641
+ SA=4.25268e-07 SB=6.8e-07 SCA=10.4358 SCB=0.0112978 SCC=0.00080481
mXI1_XI32_MMI2-M_u2 NET68 XI1_XI32_NET20 VSS! VSS! nch L=6e-08 W=3.9e-07
+ AD=3.9e-14 AS=3.9e-14 PD=5.9e-07 PS=5.9e-07 NRD=0.25641 NRS=0.25641
+ SA=7.81141e-07 SB=4.2e-07 SCA=10.4358 SCB=0.0112978 SCC=0.00080481
mXI1_XI32_MM_u4-M_u2 NET68 XI1_XI32_NET20 VSS! VSS! nch L=6e-08 W=3.9e-07
+ AD=3.9e-14 AS=6.24e-14 PD=5.9e-07 PS=1.1e-06 NRD=0.25641 NRS=0.410256
+ SA=1.08144e-06 SB=1.6e-07 SCA=10.4358 SCB=0.0112978 SCC=0.00080481
mXI1_XI33_MM_u8-M_u2 XI1_XI33_NET13 NET120 VSS! VSS! nch L=6e-08 W=1.95e-07
+ AD=3.51e-14 AS=2.0589e-14 PD=7.5e-07 PS=4.25455e-07 NRD=0.923077 NRS=0.541459
+ SA=1.8e-07 SB=4.79383e-07 SCA=14.8258 SCB=0.0174757 SCC=0.00143457
mXI1_XI33_MM_u5-M_u2 XI1_XI33_NET33 XI1_XI33_NET5 VSS! VSS! nch L=6e-08
+ W=1.9e-07 AD=2.8462e-14 AS=2.0061e-14 PD=5.168e-07 PS=4.14545e-07 NRD=0.788421
+ NRS=0.555707 SA=3.57793e-07 SB=3.86598e-07 SCA=18.4379 SCB=0.0204771
+ SCC=0.00215666
mXI1_XI33_MMI1-M_u3 XI1_XI33_NET33 NET120 XI1_XI33_NET20 VSS! nch L=6e-08
+ W=3.1e-07 AD=4.6438e-14 AS=4.20222e-14 PD=8.432e-07 PS=6.24921e-07 NRD=0.483226
+ NRS=0.437276 SA=1.78403e-07 SB=5.64361e-07 SCA=7.47144 SCB=0.00790826
+ SCC=0.000274709
mXI1_XI33_MM_u6-M_u3 XI1_XI33_NET5 XI1_XI33_NET13 XI1_XI33_NET20 VSS! nch
+ L=6e-08 W=3.2e-07 AD=3.3262e-14 AS=4.33778e-14 PD=5.31831e-07 PS=6.45079e-07
+ NRD=0.324824 NRS=0.423611 SA=3.72884e-07 SB=9.4e-07 SCA=11.7638 SCB=0.0132034
+ SCC=0.000978045
mXI1_XI33_MM_u2-M_u2 XI1_XI33_NET5 OP1<12> VSS! VSS! nch L=6e-08 W=3.9e-07
+ AD=4.0538e-14 AS=3.9e-14 PD=6.48169e-07 PS=5.9e-07 NRD=0.266522 NRS=0.25641
+ SA=4.25268e-07 SB=6.8e-07 SCA=10.4358 SCB=0.0112978 SCC=0.00080481
mXI1_XI33_MMI2-M_u2 noxref_50 XI1_XI33_NET20 VSS! VSS! nch L=6e-08 W=3.9e-07
+ AD=3.9e-14 AS=3.9e-14 PD=5.9e-07 PS=5.9e-07 NRD=0.25641 NRS=0.25641
+ SA=7.81141e-07 SB=4.2e-07 SCA=10.4358 SCB=0.0112978 SCC=0.00080481
mXI1_XI33_MM_u4-M_u2 noxref_50 XI1_XI33_NET20 VSS! VSS! nch L=6e-08 W=3.9e-07
+ AD=3.9e-14 AS=6.24e-14 PD=5.9e-07 PS=1.1e-06 NRD=0.25641 NRS=0.410256
+ SA=1.08144e-06 SB=1.6e-07 SCA=10.4358 SCB=0.0112978 SCC=0.00080481
mXI1_XI23_MM_u8-M_u2 XI1_XI23_NET13 NET117 VSS! VSS! nch L=6e-08 W=1.95e-07
+ AD=3.51e-14 AS=2.0589e-14 PD=7.5e-07 PS=4.25455e-07 NRD=0.923077 NRS=0.541459
+ SA=1.8e-07 SB=4.79383e-07 SCA=14.8258 SCB=0.0174757 SCC=0.00143457
mXI1_XI23_MM_u5-M_u2 XI1_XI23_NET33 XI1_XI23_NET5 VSS! VSS! nch L=6e-08
+ W=1.9e-07 AD=2.8462e-14 AS=2.0061e-14 PD=5.168e-07 PS=4.14545e-07 NRD=0.788421
+ NRS=0.555707 SA=3.57793e-07 SB=3.86598e-07 SCA=18.4379 SCB=0.0204771
+ SCC=0.00215666
mXI1_XI23_MMI1-M_u3 XI1_XI23_NET33 NET117 XI1_XI23_NET20 VSS! nch L=6e-08
+ W=3.1e-07 AD=4.6438e-14 AS=4.20222e-14 PD=8.432e-07 PS=6.24921e-07 NRD=0.483226
+ NRS=0.437276 SA=1.78403e-07 SB=5.64361e-07 SCA=7.47144 SCB=0.00790826
+ SCC=0.000274709
mXI1_XI23_MM_u6-M_u3 XI1_XI23_NET5 XI1_XI23_NET13 XI1_XI23_NET20 VSS! nch
+ L=6e-08 W=3.2e-07 AD=3.3262e-14 AS=4.33778e-14 PD=5.31831e-07 PS=6.45079e-07
+ NRD=0.324824 NRS=0.423611 SA=3.72884e-07 SB=9.4e-07 SCA=11.7638 SCB=0.0132034
+ SCC=0.000978045
mXI1_XI23_MM_u2-M_u2 XI1_XI23_NET5 OP1<11> VSS! VSS! nch L=6e-08 W=3.9e-07
+ AD=4.0538e-14 AS=3.9e-14 PD=6.48169e-07 PS=5.9e-07 NRD=0.266522 NRS=0.25641
+ SA=4.25268e-07 SB=6.8e-07 SCA=10.4358 SCB=0.0112978 SCC=0.00080481
mXI1_XI23_MMI2-M_u2 NET70 XI1_XI23_NET20 VSS! VSS! nch L=6e-08 W=3.9e-07
+ AD=3.9e-14 AS=3.9e-14 PD=5.9e-07 PS=5.9e-07 NRD=0.25641 NRS=0.25641
+ SA=7.81141e-07 SB=4.2e-07 SCA=10.4358 SCB=0.0112978 SCC=0.00080481
mXI1_XI23_MM_u4-M_u2 NET70 XI1_XI23_NET20 VSS! VSS! nch L=6e-08 W=3.9e-07
+ AD=3.9e-14 AS=6.24e-14 PD=5.9e-07 PS=1.1e-06 NRD=0.25641 NRS=0.410256
+ SA=1.08144e-06 SB=1.6e-07 SCA=10.4358 SCB=0.0112978 SCC=0.00080481
mXI1_XI19_MM_u8-M_u2 XI1_XI19_NET13 NET114 VSS! VSS! nch L=6e-08 W=1.95e-07
+ AD=3.51e-14 AS=2.0589e-14 PD=7.5e-07 PS=4.25455e-07 NRD=0.923077 NRS=0.541459
+ SA=1.8e-07 SB=4.79383e-07 SCA=14.8258 SCB=0.0174757 SCC=0.00143457
mXI1_XI19_MM_u5-M_u2 XI1_XI19_NET33 XI1_XI19_NET5 VSS! VSS! nch L=6e-08
+ W=1.9e-07 AD=2.8462e-14 AS=2.0061e-14 PD=5.168e-07 PS=4.14545e-07 NRD=0.788421
+ NRS=0.555707 SA=3.57793e-07 SB=3.86598e-07 SCA=18.4379 SCB=0.0204771
+ SCC=0.00215666
mXI1_XI19_MMI1-M_u3 XI1_XI19_NET33 NET114 XI1_XI19_NET20 VSS! nch L=6e-08
+ W=3.1e-07 AD=4.6438e-14 AS=4.20222e-14 PD=8.432e-07 PS=6.24921e-07 NRD=0.483226
+ NRS=0.437276 SA=1.78403e-07 SB=5.64361e-07 SCA=7.47144 SCB=0.00790826
+ SCC=0.000274709
mXI1_XI19_MM_u6-M_u3 XI1_XI19_NET5 XI1_XI19_NET13 XI1_XI19_NET20 VSS! nch
+ L=6e-08 W=3.2e-07 AD=3.3262e-14 AS=4.33778e-14 PD=5.31831e-07 PS=6.45079e-07
+ NRD=0.324824 NRS=0.423611 SA=3.72884e-07 SB=9.4e-07 SCA=11.7638 SCB=0.0132034
+ SCC=0.000978045
mXI1_XI19_MM_u2-M_u2 XI1_XI19_NET5 OP1<10> VSS! VSS! nch L=6e-08 W=3.9e-07
+ AD=4.0538e-14 AS=3.9e-14 PD=6.48169e-07 PS=5.9e-07 NRD=0.266522 NRS=0.25641
+ SA=4.25268e-07 SB=6.8e-07 SCA=10.4358 SCB=0.0112978 SCC=0.00080481
mXI1_XI19_MMI2-M_u2 NET71 XI1_XI19_NET20 VSS! VSS! nch L=6e-08 W=3.9e-07
+ AD=3.9e-14 AS=3.9e-14 PD=5.9e-07 PS=5.9e-07 NRD=0.25641 NRS=0.25641
+ SA=7.81141e-07 SB=4.2e-07 SCA=10.4358 SCB=0.0112978 SCC=0.00080481
mXI1_XI19_MM_u4-M_u2 NET71 XI1_XI19_NET20 VSS! VSS! nch L=6e-08 W=3.9e-07
+ AD=3.9e-14 AS=6.24e-14 PD=5.9e-07 PS=1.1e-06 NRD=0.25641 NRS=0.410256
+ SA=1.08144e-06 SB=1.6e-07 SCA=10.4358 SCB=0.0112978 SCC=0.00080481
mXI1_XI21_MM_u8-M_u2 XI1_XI21_NET13 NET111 VSS! VSS! nch L=6e-08 W=1.95e-07
+ AD=3.51e-14 AS=2.0589e-14 PD=7.5e-07 PS=4.25455e-07 NRD=0.923077 NRS=0.541459
+ SA=1.8e-07 SB=4.79383e-07 SCA=14.8258 SCB=0.0174757 SCC=0.00143457
mXI1_XI21_MM_u5-M_u2 XI1_XI21_NET33 XI1_XI21_NET5 VSS! VSS! nch L=6e-08
+ W=1.9e-07 AD=2.8462e-14 AS=2.0061e-14 PD=5.168e-07 PS=4.14545e-07 NRD=0.788421
+ NRS=0.555707 SA=3.57793e-07 SB=3.86598e-07 SCA=18.4379 SCB=0.0204771
+ SCC=0.00215666
mXI1_XI21_MMI1-M_u3 XI1_XI21_NET33 NET111 XI1_XI21_NET20 VSS! nch L=6e-08
+ W=3.1e-07 AD=4.6438e-14 AS=4.20222e-14 PD=8.432e-07 PS=6.24921e-07 NRD=0.483226
+ NRS=0.437276 SA=1.78403e-07 SB=5.64361e-07 SCA=7.47144 SCB=0.00790826
+ SCC=0.000274709
mXI1_XI21_MM_u6-M_u3 XI1_XI21_NET5 XI1_XI21_NET13 XI1_XI21_NET20 VSS! nch
+ L=6e-08 W=3.2e-07 AD=3.3262e-14 AS=4.33778e-14 PD=5.31831e-07 PS=6.45079e-07
+ NRD=0.324824 NRS=0.423611 SA=3.72884e-07 SB=9.4e-07 SCA=11.7638 SCB=0.0132034
+ SCC=0.000978045
mXI1_XI21_MM_u2-M_u2 XI1_XI21_NET5 OP1<9> VSS! VSS! nch L=6e-08 W=3.9e-07
+ AD=4.0538e-14 AS=3.9e-14 PD=6.48169e-07 PS=5.9e-07 NRD=0.266522 NRS=0.25641
+ SA=4.25268e-07 SB=6.8e-07 SCA=10.4358 SCB=0.0112978 SCC=0.00080481
mXI1_XI21_MMI2-M_u2 NET73 XI1_XI21_NET20 VSS! VSS! nch L=6e-08 W=3.9e-07
+ AD=3.9e-14 AS=3.9e-14 PD=5.9e-07 PS=5.9e-07 NRD=0.25641 NRS=0.25641
+ SA=7.81141e-07 SB=4.2e-07 SCA=10.4358 SCB=0.0112978 SCC=0.00080481
mXI1_XI21_MM_u4-M_u2 NET73 XI1_XI21_NET20 VSS! VSS! nch L=6e-08 W=3.9e-07
+ AD=3.9e-14 AS=6.24e-14 PD=5.9e-07 PS=1.1e-06 NRD=0.25641 NRS=0.410256
+ SA=1.08144e-06 SB=1.6e-07 SCA=10.4358 SCB=0.0112978 SCC=0.00080481
mXI1_XI34_MM_u8-M_u2 XI1_XI34_NET13 NET108 VSS! VSS! nch L=6e-08 W=1.95e-07
+ AD=3.51e-14 AS=2.0589e-14 PD=7.5e-07 PS=4.25455e-07 NRD=0.923077 NRS=0.541459
+ SA=1.8e-07 SB=4.79383e-07 SCA=14.8258 SCB=0.0174757 SCC=0.00143457
mXI1_XI34_MM_u5-M_u2 XI1_XI34_NET33 XI1_XI34_NET5 VSS! VSS! nch L=6e-08
+ W=1.9e-07 AD=2.8462e-14 AS=2.0061e-14 PD=5.168e-07 PS=4.14545e-07 NRD=0.788421
+ NRS=0.555707 SA=3.57793e-07 SB=3.86598e-07 SCA=18.4379 SCB=0.0204771
+ SCC=0.00215666
mXI1_XI34_MMI1-M_u3 XI1_XI34_NET33 NET108 XI1_XI34_NET20 VSS! nch L=6e-08
+ W=3.1e-07 AD=4.6438e-14 AS=4.20222e-14 PD=8.432e-07 PS=6.24921e-07 NRD=0.483226
+ NRS=0.437276 SA=1.78403e-07 SB=5.64361e-07 SCA=7.47144 SCB=0.00790826
+ SCC=0.000274709
mXI1_XI34_MM_u6-M_u3 XI1_XI34_NET5 XI1_XI34_NET13 XI1_XI34_NET20 VSS! nch
+ L=6e-08 W=3.2e-07 AD=3.3262e-14 AS=4.33778e-14 PD=5.31831e-07 PS=6.45079e-07
+ NRD=0.324824 NRS=0.423611 SA=3.72884e-07 SB=9.4e-07 SCA=11.7638 SCB=0.0132034
+ SCC=0.000978045
mXI1_XI34_MM_u2-M_u2 XI1_XI34_NET5 OP1<8> VSS! VSS! nch L=6e-08 W=3.9e-07
+ AD=4.0538e-14 AS=3.9e-14 PD=6.48169e-07 PS=5.9e-07 NRD=0.266522 NRS=0.25641
+ SA=4.25268e-07 SB=6.8e-07 SCA=10.4358 SCB=0.0112978 SCC=0.00080481
mXI1_XI34_MMI2-M_u2 noxref_63 XI1_XI34_NET20 VSS! VSS! nch L=6e-08 W=3.9e-07
+ AD=3.9e-14 AS=3.9e-14 PD=5.9e-07 PS=5.9e-07 NRD=0.25641 NRS=0.25641
+ SA=7.81141e-07 SB=4.2e-07 SCA=10.4358 SCB=0.0112978 SCC=0.00080481
mXI1_XI34_MM_u4-M_u2 noxref_63 XI1_XI34_NET20 VSS! VSS! nch L=6e-08 W=3.9e-07
+ AD=3.9e-14 AS=6.24e-14 PD=5.9e-07 PS=1.1e-06 NRD=0.25641 NRS=0.410256
+ SA=1.08144e-06 SB=1.6e-07 SCA=10.4358 SCB=0.0112978 SCC=0.00080481
mXI1_XI25_MM_u8-M_u2 XI1_XI25_NET13 NET105 VSS! VSS! nch L=6e-08 W=1.95e-07
+ AD=3.51e-14 AS=2.0589e-14 PD=7.5e-07 PS=4.25455e-07 NRD=0.923077 NRS=0.541459
+ SA=1.8e-07 SB=4.79383e-07 SCA=14.8258 SCB=0.0174757 SCC=0.00143457
mXI1_XI25_MM_u5-M_u2 XI1_XI25_NET33 XI1_XI25_NET5 VSS! VSS! nch L=6e-08
+ W=1.9e-07 AD=2.8462e-14 AS=2.0061e-14 PD=5.168e-07 PS=4.14545e-07 NRD=0.788421
+ NRS=0.555707 SA=3.57793e-07 SB=3.86598e-07 SCA=18.4379 SCB=0.0204771
+ SCC=0.00215666
mXI1_XI25_MMI1-M_u3 XI1_XI25_NET33 NET105 XI1_XI25_NET20 VSS! nch L=6e-08
+ W=3.1e-07 AD=4.6438e-14 AS=4.20222e-14 PD=8.432e-07 PS=6.24921e-07 NRD=0.483226
+ NRS=0.437276 SA=1.78403e-07 SB=5.64361e-07 SCA=7.47144 SCB=0.00790826
+ SCC=0.000274709
mXI1_XI25_MM_u6-M_u3 XI1_XI25_NET5 XI1_XI25_NET13 XI1_XI25_NET20 VSS! nch
+ L=6e-08 W=3.2e-07 AD=3.3262e-14 AS=4.33778e-14 PD=5.31831e-07 PS=6.45079e-07
+ NRD=0.324824 NRS=0.423611 SA=3.72884e-07 SB=9.4e-07 SCA=11.7638 SCB=0.0132034
+ SCC=0.000978045
mXI1_XI25_MM_u2-M_u2 XI1_XI25_NET5 OP1<7> VSS! VSS! nch L=6e-08 W=3.9e-07
+ AD=4.0538e-14 AS=3.9e-14 PD=6.48169e-07 PS=5.9e-07 NRD=0.266522 NRS=0.25641
+ SA=4.25268e-07 SB=6.8e-07 SCA=10.4358 SCB=0.0112978 SCC=0.00080481
mXI1_XI25_MMI2-M_u2 NET76 XI1_XI25_NET20 VSS! VSS! nch L=6e-08 W=3.9e-07
+ AD=3.9e-14 AS=3.9e-14 PD=5.9e-07 PS=5.9e-07 NRD=0.25641 NRS=0.25641
+ SA=7.81141e-07 SB=4.2e-07 SCA=10.4358 SCB=0.0112978 SCC=0.00080481
mXI1_XI25_MM_u4-M_u2 NET76 XI1_XI25_NET20 VSS! VSS! nch L=6e-08 W=3.9e-07
+ AD=3.9e-14 AS=6.24e-14 PD=5.9e-07 PS=1.1e-06 NRD=0.25641 NRS=0.410256
+ SA=1.08144e-06 SB=1.6e-07 SCA=10.4358 SCB=0.0112978 SCC=0.00080481
mXI1_XI24_MM_u8-M_u2 XI1_XI24_NET13 NET102 VSS! VSS! nch L=6e-08 W=1.95e-07
+ AD=3.51e-14 AS=2.0589e-14 PD=7.5e-07 PS=4.25455e-07 NRD=0.923077 NRS=0.541459
+ SA=1.8e-07 SB=4.79383e-07 SCA=14.8258 SCB=0.0174757 SCC=0.00143457
mXI1_XI24_MM_u5-M_u2 XI1_XI24_NET33 XI1_XI24_NET5 VSS! VSS! nch L=6e-08
+ W=1.9e-07 AD=2.8462e-14 AS=2.0061e-14 PD=5.168e-07 PS=4.14545e-07 NRD=0.788421
+ NRS=0.555707 SA=3.57793e-07 SB=3.86598e-07 SCA=18.4379 SCB=0.0204771
+ SCC=0.00215666
mXI1_XI24_MMI1-M_u3 XI1_XI24_NET33 NET102 XI1_XI24_NET20 VSS! nch L=6e-08
+ W=3.1e-07 AD=4.6438e-14 AS=4.20222e-14 PD=8.432e-07 PS=6.24921e-07 NRD=0.483226
+ NRS=0.437276 SA=1.78403e-07 SB=5.64361e-07 SCA=7.47144 SCB=0.00790826
+ SCC=0.000274709
mXI1_XI24_MM_u6-M_u3 XI1_XI24_NET5 XI1_XI24_NET13 XI1_XI24_NET20 VSS! nch
+ L=6e-08 W=3.2e-07 AD=3.3262e-14 AS=4.33778e-14 PD=5.31831e-07 PS=6.45079e-07
+ NRD=0.324824 NRS=0.423611 SA=3.72884e-07 SB=9.4e-07 SCA=11.7638 SCB=0.0132034
+ SCC=0.000978045
mXI1_XI24_MM_u2-M_u2 XI1_XI24_NET5 OP1<6> VSS! VSS! nch L=6e-08 W=3.9e-07
+ AD=4.0538e-14 AS=3.9e-14 PD=6.48169e-07 PS=5.9e-07 NRD=0.266522 NRS=0.25641
+ SA=4.25268e-07 SB=6.8e-07 SCA=10.4358 SCB=0.0112978 SCC=0.00080481
mXI1_XI24_MMI2-M_u2 NET77 XI1_XI24_NET20 VSS! VSS! nch L=6e-08 W=3.9e-07
+ AD=3.9e-14 AS=3.9e-14 PD=5.9e-07 PS=5.9e-07 NRD=0.25641 NRS=0.25641
+ SA=7.81141e-07 SB=4.2e-07 SCA=10.4358 SCB=0.0112978 SCC=0.00080481
mXI1_XI24_MM_u4-M_u2 NET77 XI1_XI24_NET20 VSS! VSS! nch L=6e-08 W=3.9e-07
+ AD=3.9e-14 AS=6.24e-14 PD=5.9e-07 PS=1.1e-06 NRD=0.25641 NRS=0.410256
+ SA=1.08144e-06 SB=1.6e-07 SCA=10.4358 SCB=0.0112978 SCC=0.00080481
mXI1_XI27_MM_u8-M_u2 XI1_XI27_NET13 NET99 VSS! VSS! nch L=6e-08 W=1.95e-07
+ AD=3.51e-14 AS=2.0589e-14 PD=7.5e-07 PS=4.25455e-07 NRD=0.923077 NRS=0.541459
+ SA=1.8e-07 SB=4.79383e-07 SCA=14.8258 SCB=0.0174757 SCC=0.00143457
mXI1_XI27_MM_u5-M_u2 XI1_XI27_NET33 XI1_XI27_NET5 VSS! VSS! nch L=6e-08
+ W=1.9e-07 AD=2.8462e-14 AS=2.0061e-14 PD=5.168e-07 PS=4.14545e-07 NRD=0.788421
+ NRS=0.555707 SA=3.57793e-07 SB=3.86598e-07 SCA=18.4379 SCB=0.0204771
+ SCC=0.00215666
mXI1_XI27_MMI1-M_u3 XI1_XI27_NET33 NET99 XI1_XI27_NET20 VSS! nch L=6e-08
+ W=3.1e-07 AD=4.6438e-14 AS=4.20222e-14 PD=8.432e-07 PS=6.24921e-07 NRD=0.483226
+ NRS=0.437276 SA=1.78403e-07 SB=5.64361e-07 SCA=7.47144 SCB=0.00790826
+ SCC=0.000274709
mXI1_XI27_MM_u6-M_u3 XI1_XI27_NET5 XI1_XI27_NET13 XI1_XI27_NET20 VSS! nch
+ L=6e-08 W=3.2e-07 AD=3.3262e-14 AS=4.33778e-14 PD=5.31831e-07 PS=6.45079e-07
+ NRD=0.324824 NRS=0.423611 SA=3.72884e-07 SB=9.4e-07 SCA=11.7638 SCB=0.0132034
+ SCC=0.000978045
mXI1_XI27_MM_u2-M_u2 XI1_XI27_NET5 OP1<5> VSS! VSS! nch L=6e-08 W=3.9e-07
+ AD=4.0538e-14 AS=3.9e-14 PD=6.48169e-07 PS=5.9e-07 NRD=0.266522 NRS=0.25641
+ SA=4.25268e-07 SB=6.8e-07 SCA=10.4358 SCB=0.0112978 SCC=0.00080481
mXI1_XI27_MMI2-M_u2 NET78 XI1_XI27_NET20 VSS! VSS! nch L=6e-08 W=3.9e-07
+ AD=3.9e-14 AS=3.9e-14 PD=5.9e-07 PS=5.9e-07 NRD=0.25641 NRS=0.25641
+ SA=7.81141e-07 SB=4.2e-07 SCA=10.4358 SCB=0.0112978 SCC=0.00080481
mXI1_XI27_MM_u4-M_u2 NET78 XI1_XI27_NET20 VSS! VSS! nch L=6e-08 W=3.9e-07
+ AD=3.9e-14 AS=6.24e-14 PD=5.9e-07 PS=1.1e-06 NRD=0.25641 NRS=0.410256
+ SA=1.08144e-06 SB=1.6e-07 SCA=10.4358 SCB=0.0112978 SCC=0.00080481
mXI1_XI26_MM_u8-M_u2 XI1_XI26_NET13 NET96 VSS! VSS! nch L=6e-08 W=1.95e-07
+ AD=3.51e-14 AS=2.0589e-14 PD=7.5e-07 PS=4.25455e-07 NRD=0.923077 NRS=0.541459
+ SA=1.8e-07 SB=4.79383e-07 SCA=14.8258 SCB=0.0174757 SCC=0.00143457
mXI1_XI26_MM_u5-M_u2 XI1_XI26_NET33 XI1_XI26_NET5 VSS! VSS! nch L=6e-08
+ W=1.9e-07 AD=2.8462e-14 AS=2.0061e-14 PD=5.168e-07 PS=4.14545e-07 NRD=0.788421
+ NRS=0.555707 SA=3.57793e-07 SB=3.86598e-07 SCA=18.4379 SCB=0.0204771
+ SCC=0.00215666
mXI1_XI26_MMI1-M_u3 XI1_XI26_NET33 NET96 XI1_XI26_NET20 VSS! nch L=6e-08
+ W=3.1e-07 AD=4.6438e-14 AS=4.20222e-14 PD=8.432e-07 PS=6.24921e-07 NRD=0.483226
+ NRS=0.437276 SA=1.78403e-07 SB=5.64361e-07 SCA=7.47144 SCB=0.00790826
+ SCC=0.000274709
mXI1_XI26_MM_u6-M_u3 XI1_XI26_NET5 XI1_XI26_NET13 XI1_XI26_NET20 VSS! nch
+ L=6e-08 W=3.2e-07 AD=3.3262e-14 AS=4.33778e-14 PD=5.31831e-07 PS=6.45079e-07
+ NRD=0.324824 NRS=0.423611 SA=3.72884e-07 SB=9.4e-07 SCA=11.7638 SCB=0.0132034
+ SCC=0.000978045
mXI1_XI26_MM_u2-M_u2 XI1_XI26_NET5 OP1<4> VSS! VSS! nch L=6e-08 W=3.9e-07
+ AD=4.0538e-14 AS=3.9e-14 PD=6.48169e-07 PS=5.9e-07 NRD=0.266522 NRS=0.25641
+ SA=4.25268e-07 SB=6.8e-07 SCA=10.4358 SCB=0.0112978 SCC=0.00080481
mXI1_XI26_MMI2-M_u2 noxref_77 XI1_XI26_NET20 VSS! VSS! nch L=6e-08 W=3.9e-07
+ AD=3.9e-14 AS=3.9e-14 PD=5.9e-07 PS=5.9e-07 NRD=0.25641 NRS=0.25641
+ SA=7.81141e-07 SB=4.2e-07 SCA=10.4358 SCB=0.0112978 SCC=0.00080481
mXI1_XI26_MM_u4-M_u2 noxref_77 XI1_XI26_NET20 VSS! VSS! nch L=6e-08 W=3.9e-07
+ AD=3.9e-14 AS=6.24e-14 PD=5.9e-07 PS=1.1e-06 NRD=0.25641 NRS=0.410256
+ SA=1.08144e-06 SB=1.6e-07 SCA=10.4358 SCB=0.0112978 SCC=0.00080481
mXI1_XI31_MM_u8-M_u2 XI1_XI31_NET13 NET93 VSS! VSS! nch L=6e-08 W=1.95e-07
+ AD=3.51e-14 AS=2.0589e-14 PD=7.5e-07 PS=4.25455e-07 NRD=0.923077 NRS=0.541459
+ SA=1.8e-07 SB=4.79383e-07 SCA=14.8258 SCB=0.0174757 SCC=0.00143457
mXI1_XI31_MM_u5-M_u2 XI1_XI31_NET33 XI1_XI31_NET5 VSS! VSS! nch L=6e-08
+ W=1.9e-07 AD=2.8462e-14 AS=2.0061e-14 PD=5.168e-07 PS=4.14545e-07 NRD=0.788421
+ NRS=0.555707 SA=3.57793e-07 SB=3.86598e-07 SCA=18.4379 SCB=0.0204771
+ SCC=0.00215666
mXI1_XI31_MMI1-M_u3 XI1_XI31_NET33 NET93 XI1_XI31_NET20 VSS! nch L=6e-08
+ W=3.1e-07 AD=4.6438e-14 AS=4.20222e-14 PD=8.432e-07 PS=6.24921e-07 NRD=0.483226
+ NRS=0.437276 SA=1.78403e-07 SB=5.64361e-07 SCA=7.47144 SCB=0.00790826
+ SCC=0.000274709
mXI1_XI31_MM_u6-M_u3 XI1_XI31_NET5 XI1_XI31_NET13 XI1_XI31_NET20 VSS! nch
+ L=6e-08 W=3.2e-07 AD=3.3262e-14 AS=4.33778e-14 PD=5.31831e-07 PS=6.45079e-07
+ NRD=0.324824 NRS=0.423611 SA=3.72884e-07 SB=9.4e-07 SCA=11.7638 SCB=0.0132034
+ SCC=0.000978045
mXI1_XI31_MM_u2-M_u2 XI1_XI31_NET5 OP1<3> VSS! VSS! nch L=6e-08 W=3.9e-07
+ AD=4.0538e-14 AS=3.9e-14 PD=6.48169e-07 PS=5.9e-07 NRD=0.266522 NRS=0.25641
+ SA=4.25268e-07 SB=6.8e-07 SCA=10.4358 SCB=0.0112978 SCC=0.00080481
mXI1_XI31_MMI2-M_u2 NET144 XI1_XI31_NET20 VSS! VSS! nch L=6e-08 W=3.9e-07
+ AD=3.9e-14 AS=3.9e-14 PD=5.9e-07 PS=5.9e-07 NRD=0.25641 NRS=0.25641
+ SA=7.81141e-07 SB=4.2e-07 SCA=10.4358 SCB=0.0112978 SCC=0.00080481
mXI1_XI31_MM_u4-M_u2 NET144 XI1_XI31_NET20 VSS! VSS! nch L=6e-08 W=3.9e-07
+ AD=3.9e-14 AS=6.24e-14 PD=5.9e-07 PS=1.1e-06 NRD=0.25641 NRS=0.410256
+ SA=1.08144e-06 SB=1.6e-07 SCA=10.4358 SCB=0.0112978 SCC=0.00080481
mXI1_XI28_MM_u8-M_u2 XI1_XI28_NET13 NET90 VSS! VSS! nch L=6e-08 W=1.95e-07
+ AD=3.51e-14 AS=2.0589e-14 PD=7.5e-07 PS=4.25455e-07 NRD=0.923077 NRS=0.541459
+ SA=1.8e-07 SB=4.79383e-07 SCA=14.8258 SCB=0.0174757 SCC=0.00143457
mXI1_XI28_MM_u5-M_u2 XI1_XI28_NET33 XI1_XI28_NET5 VSS! VSS! nch L=6e-08
+ W=1.9e-07 AD=2.8462e-14 AS=2.0061e-14 PD=5.168e-07 PS=4.14545e-07 NRD=0.788421
+ NRS=0.555707 SA=3.57793e-07 SB=3.86598e-07 SCA=18.4379 SCB=0.0204771
+ SCC=0.00215666
mXI1_XI28_MMI1-M_u3 XI1_XI28_NET33 NET90 XI1_XI28_NET20 VSS! nch L=6e-08
+ W=3.1e-07 AD=4.6438e-14 AS=4.20222e-14 PD=8.432e-07 PS=6.24921e-07 NRD=0.483226
+ NRS=0.437276 SA=1.78403e-07 SB=5.64361e-07 SCA=7.47144 SCB=0.00790826
+ SCC=0.000274709
mXI1_XI28_MM_u6-M_u3 XI1_XI28_NET5 XI1_XI28_NET13 XI1_XI28_NET20 VSS! nch
+ L=6e-08 W=3.2e-07 AD=3.3262e-14 AS=4.33778e-14 PD=5.31831e-07 PS=6.45079e-07
+ NRD=0.324824 NRS=0.423611 SA=3.72884e-07 SB=9.4e-07 SCA=11.7638 SCB=0.0132034
+ SCC=0.000978045
mXI1_XI28_MM_u2-M_u2 XI1_XI28_NET5 OP1<2> VSS! VSS! nch L=6e-08 W=3.9e-07
+ AD=4.0538e-14 AS=3.9e-14 PD=6.48169e-07 PS=5.9e-07 NRD=0.266522 NRS=0.25641
+ SA=4.25268e-07 SB=6.8e-07 SCA=10.4358 SCB=0.0112978 SCC=0.00080481
mXI1_XI28_MMI2-M_u2 noxref_83 XI1_XI28_NET20 VSS! VSS! nch L=6e-08 W=3.9e-07
+ AD=3.9e-14 AS=3.9e-14 PD=5.9e-07 PS=5.9e-07 NRD=0.25641 NRS=0.25641
+ SA=7.81141e-07 SB=4.2e-07 SCA=10.4358 SCB=0.0112978 SCC=0.00080481
mXI1_XI28_MM_u4-M_u2 noxref_83 XI1_XI28_NET20 VSS! VSS! nch L=6e-08 W=3.9e-07
+ AD=3.9e-14 AS=6.24e-14 PD=5.9e-07 PS=1.1e-06 NRD=0.25641 NRS=0.410256
+ SA=1.08144e-06 SB=1.6e-07 SCA=10.4358 SCB=0.0112978 SCC=0.00080481
mXI1_XI22_MM_u8-M_u2 XI1_XI22_NET13 NET87 VSS! VSS! nch L=6e-08 W=1.95e-07
+ AD=3.51e-14 AS=2.0589e-14 PD=7.5e-07 PS=4.25455e-07 NRD=0.923077 NRS=0.541459
+ SA=1.8e-07 SB=4.79383e-07 SCA=14.8258 SCB=0.0174757 SCC=0.00143457
mXI1_XI22_MM_u5-M_u2 XI1_XI22_NET33 XI1_XI22_NET5 VSS! VSS! nch L=6e-08
+ W=1.9e-07 AD=2.8462e-14 AS=2.0061e-14 PD=5.168e-07 PS=4.14545e-07 NRD=0.788421
+ NRS=0.555707 SA=3.57793e-07 SB=3.86598e-07 SCA=18.4379 SCB=0.0204771
+ SCC=0.00215666
mXI1_XI22_MMI1-M_u3 XI1_XI22_NET33 NET87 XI1_XI22_NET20 VSS! nch L=6e-08
+ W=3.1e-07 AD=4.6438e-14 AS=4.20222e-14 PD=8.432e-07 PS=6.24921e-07 NRD=0.483226
+ NRS=0.437276 SA=1.78403e-07 SB=5.64361e-07 SCA=7.47144 SCB=0.00790826
+ SCC=0.000274709
mXI1_XI22_MM_u6-M_u3 XI1_XI22_NET5 XI1_XI22_NET13 XI1_XI22_NET20 VSS! nch
+ L=6e-08 W=3.2e-07 AD=3.3262e-14 AS=4.33778e-14 PD=5.31831e-07 PS=6.45079e-07
+ NRD=0.324824 NRS=0.423611 SA=3.72884e-07 SB=9.4e-07 SCA=11.7638 SCB=0.0132034
+ SCC=0.000978045
mXI1_XI22_MM_u2-M_u2 XI1_XI22_NET5 OP1<1> VSS! VSS! nch L=6e-08 W=3.9e-07
+ AD=4.0538e-14 AS=3.9e-14 PD=6.48169e-07 PS=5.9e-07 NRD=0.266522 NRS=0.25641
+ SA=4.25268e-07 SB=6.8e-07 SCA=10.4358 SCB=0.0112978 SCC=0.00080481
mXI1_XI22_MMI2-M_u2 NET82 XI1_XI22_NET20 VSS! VSS! nch L=6e-08 W=3.9e-07
+ AD=3.9e-14 AS=3.9e-14 PD=5.9e-07 PS=5.9e-07 NRD=0.25641 NRS=0.25641
+ SA=7.81141e-07 SB=4.2e-07 SCA=10.4358 SCB=0.0112978 SCC=0.00080481
mXI1_XI22_MM_u4-M_u2 NET82 XI1_XI22_NET20 VSS! VSS! nch L=6e-08 W=3.9e-07
+ AD=3.9e-14 AS=6.24e-14 PD=5.9e-07 PS=1.1e-06 NRD=0.25641 NRS=0.410256
+ SA=1.08144e-06 SB=1.6e-07 SCA=10.4358 SCB=0.0112978 SCC=0.00080481
mXI1_XI30_MM_u8-M_u2 XI1_XI30_NET13 NET84 VSS! VSS! nch L=6e-08 W=1.95e-07
+ AD=3.51e-14 AS=2.0589e-14 PD=7.5e-07 PS=4.25455e-07 NRD=0.923077 NRS=0.541459
+ SA=1.8e-07 SB=4.79383e-07 SCA=14.8266 SCB=0.0174757 SCC=0.00143457
mXI1_XI30_MM_u5-M_u2 XI1_XI30_NET33 XI1_XI30_NET5 VSS! VSS! nch L=6e-08
+ W=1.9e-07 AD=2.8462e-14 AS=2.0061e-14 PD=5.168e-07 PS=4.14545e-07 NRD=0.788421
+ NRS=0.555707 SA=3.57793e-07 SB=3.86598e-07 SCA=18.4433 SCB=0.0204771
+ SCC=0.00215666
mXI1_XI30_MMI1-M_u3 XI1_XI30_NET33 NET84 XI1_XI30_NET20 VSS! nch L=6e-08
+ W=3.1e-07 AD=4.6438e-14 AS=4.20222e-14 PD=8.432e-07 PS=6.24921e-07 NRD=0.483226
+ NRS=0.437276 SA=1.78403e-07 SB=5.64361e-07 SCA=7.4838 SCB=0.00790826
+ SCC=0.000274709
mXI1_XI30_MM_u6-M_u3 XI1_XI30_NET5 XI1_XI30_NET13 XI1_XI30_NET20 VSS! nch
+ L=6e-08 W=3.2e-07 AD=3.3262e-14 AS=4.33778e-14 PD=5.31831e-07 PS=6.45079e-07
+ NRD=0.324824 NRS=0.423611 SA=3.72884e-07 SB=9.4e-07 SCA=11.7842 SCB=0.0132034
+ SCC=0.000978045
mXI1_XI30_MM_u2-M_u2 XI1_XI30_NET5 OP1<0> VSS! VSS! nch L=6e-08 W=3.9e-07
+ AD=4.0538e-14 AS=3.9e-14 PD=6.48169e-07 PS=5.9e-07 NRD=0.266522 NRS=0.25641
+ SA=4.25268e-07 SB=6.8e-07 SCA=10.4646 SCB=0.0112978 SCC=0.00080481
mXI1_XI30_MMI2-M_u2 noxref_89 XI1_XI30_NET20 VSS! VSS! nch L=6e-08 W=3.9e-07
+ AD=3.9e-14 AS=3.9e-14 PD=5.9e-07 PS=5.9e-07 NRD=0.25641 NRS=0.25641
+ SA=7.81141e-07 SB=4.2e-07 SCA=10.4749 SCB=0.0112978 SCC=0.00080481
mXI1_XI30_MM_u4-M_u2 noxref_89 XI1_XI30_NET20 VSS! VSS! nch L=6e-08 W=3.9e-07
+ AD=3.9e-14 AS=6.24e-14 PD=5.9e-07 PS=1.1e-06 NRD=0.25641 NRS=0.410256
+ SA=1.08144e-06 SB=1.6e-07 SCA=10.4878 SCB=0.0112978 SCC=0.00080481
mXI17_XI0_MMI39-M_u2 XI17_XI0_NET29 NET126 VSS! VSS! nch L=6e-08 W=3.9e-07
+ AD=4.2139e-14 AS=6.24e-14 PD=7.48293e-07 PS=1.1e-06 NRD=0.277048 NRS=0.410256
+ SA=2.24454e-07 SB=1.6e-07 SCA=12.034 SCB=0.0127828 SCC=0.00109616
mXI17_XI0_MMI52-M_u3 XI17_XI0_NET29 CTRL<0> XI17_XI0_NET97 VSS! nch L=6e-08
+ W=2.25e-07 AD=2.4311e-14 AS=3.28012e-14 PD=4.31707e-07 PS=6.66867e-07
+ NRD=0.480217 NRS=0.647925 SA=1.452e-07 SB=4.2e-07 SCA=6.33729 SCB=0.00614988
+ SCC=0.00012306
mXI17_XI0_MMI51-M_u3 XI17_XI0_NET13 XI17_XI0_NET59 XI17_XI0_NET97 VSS! nch
+ L=6e-08 W=1.9e-07 AD=1.9e-14 AS=2.76988e-14 PD=3.9e-07 PS=5.63133e-07
+ NRD=0.526316 NRS=0.76728 SA=4.15e-07 SB=1.96489e-07 SCA=18.4379 SCB=0.0204771
+ SCC=0.00215666
mXI17_XI0_MMI49-M_u2 XI17_XI0_NET13 NET124 VSS! VSS! nch L=6e-08 W=1.9e-07
+ AD=1.9e-14 AS=8.42e-14 PD=3.9e-07 PS=1.57e-06 NRD=0.526316 NRS=2.33241
+ SA=1.55e-07 SB=4.70047e-07 SCA=18.4379 SCB=0.0204771 SCC=0.00215666
mXI17_XI1_MMU29_3-M_u2 ALU_OUT<14> XI17_XI1_NET11 VSS! VSS! nch L=6e-08
+ W=3.9e-07 AD=3.9e-14 AS=6.24e-14 PD=5.9e-07 PS=1.1e-06 NRD=0.25641 NRS=0.410256
+ SA=1.5619e-06 SB=1.6e-07 SCA=14.0436 SCB=0.0142306 SCC=0.00110338
mXI17_XI0_MMI47-M_u2 XI17_XI0_NET59 CTRL<0> VSS! VSS! nch L=6e-08 W=1.8e-07
+ AD=3.15e-14 AS=4.29e-14 PD=7.1e-07 PS=7e-07 NRD=0.972222 NRS=1.32407
+ SA=9.77529e-07 SB=1.75e-07 SCA=18.9593 SCB=0.021006 SCC=0.00225714
mXI17_XI1_MMU29_0-M_u2 ALU_OUT<14> XI17_XI1_NET11 VSS! VSS! nch L=6e-08
+ W=3.9e-07 AD=3.9e-14 AS=4.23e-14 PD=5.9e-07 PS=7.5e-07 NRD=0.25641 NRS=0.278107
+ SA=1.29937e-06 SB=4.2e-07 SCA=14.0436 SCB=0.0142306 SCC=0.00110338